Control File for a MODFLOW-only simulation, Sagehen Creek Watershed
####
model_mode
1
4
MODFLOW
####
modflow_name
1
4
./sagehen_linux.mf.nam
####
param_file
1
4
../input/prms/gsflow.params
